EPRI_Ckt7_DER_Project/02_Base_Allocated/ckt7_VLN_Node.Txt

LINE-GROUND and LINE-LINE VOLTAGES BY BUS & NODE

Bus  Node    VLN (kV)   Angle      pu     Base kV    Node-Node   VLL (kV)  Angle      pu

SOURCEBUS ... 1       64.356 /_   -9.1   0.96929   115.000        1-2     111.47 /_   20.9   0.96933
   -          2       64.366 /_ -129.1   0.96943   115.000        2-3     111.49 /_  -99.1    0.9695
   -          3       64.368 /_  110.9   0.96946   115.000        3-1     111.48 /_  140.9   0.96936
CKT7 ........ 1       6.9696 /_  -39.3   0.96806    12.470        1-2     12.071 /_   -9.3     0.968
   -          2       6.9694 /_ -159.3   0.96804    12.470        2-3     12.073 /_ -129.3   0.96814
   -          3       6.9706 /_   80.7    0.9682    12.470        3-1     12.073 /_  110.7   0.96817
318405 ...... 1       6.9696 /_  -39.3   0.96806    12.470        1-2     12.071 /_   -9.3     0.968
   -          2       6.9694 /_ -159.3   0.96804    12.470        2-3     12.073 /_ -129.3   0.96814
   -          3       6.9706 /_   80.7    0.9682    12.470        3-1     12.073 /_  110.7   0.96817
318412 ...... 1       6.9696 /_  -39.3   0.96806    12.470        1-2     12.071 /_   -9.3     0.968
   -          2       6.9694 /_ -159.3   0.96804    12.470        2-3     12.073 /_ -129.3   0.96814
   -          3       6.9706 /_   80.7    0.9682    12.470        3-1     12.073 /_  110.7   0.96817
318414 ...... 1       6.9696 /_  -39.3   0.96806    12.470        1-2     12.071 /_   -9.3     0.968
   -          2       6.9694 /_ -159.3   0.96804    12.470        2-3     12.073 /_ -129.3   0.96814
   -          3       6.9706 /_   80.7    0.9682    12.470        3-1     12.073 /_  110.7   0.96817
157345 ...... 1       6.9612 /_  -39.5   0.96689    12.470        1-2     12.059 /_   -9.4   0.96704
   -          2       6.9655 /_ -159.4   0.96749    12.470        2-3     12.062 /_ -129.4   0.96728
   -          3       6.9628 /_   80.6   0.96711    12.470        3-1     12.061 /_  110.6   0.96718
157346 ...... 1       6.9612 /_  -39.5   0.96689    12.470        1-2     12.059 /_   -9.4   0.96704
   -          2       6.9655 /_ -159.4   0.96749    12.470        2-3     12.062 /_ -129.4   0.96728
   -          3       6.9628 /_   80.6   0.96712    12.470        3-1     12.061 /_  110.6   0.96718
165442 ...... 1        6.961 /_  -39.5   0.96687    12.470        1-2     12.059 /_   -9.4   0.96701
   -          2       6.9654 /_ -159.4   0.96748    12.470        2-3     12.062 /_ -129.4   0.96726
   -          3       6.9626 /_   80.6   0.96708    12.470        3-1      12.06 /_  110.6   0.96715
298160 ...... 1       6.9535 /_  -39.7   0.96583    12.470        1-2     12.045 /_   -9.6   0.96595
   -          2       6.9609 /_ -159.6   0.96685    12.470        2-3     12.051 /_ -129.6   0.96637
   -          3       6.9527 /_   80.4   0.96572    12.470        3-1     12.047 /_  110.4   0.96606
165448 ...... 1       6.9478 /_  -39.7   0.96504    12.470        1-2     12.037 /_   -9.7   0.96524
   -          2        6.957 /_ -159.6   0.96631    12.470        2-3     12.043 /_ -129.7   0.96572
   -          3       6.9472 /_   80.3   0.96494    12.470        3-1     12.038 /_  110.3   0.96532
275354 ...... 1       6.9374 /_  -40.0   0.96358    12.470        1-2     12.018 /_   -9.9   0.96374
   -          2       6.9509 /_ -159.9   0.96546    12.470        2-3     12.027 /_ -129.9   0.96449
   -          3        6.933 /_   80.1   0.96298    12.470        3-1     12.018 /_  110.0   0.96379
165449 ...... 1       6.9366 /_  -40.0   0.96347    12.470        1-2     12.016 /_   -9.9   0.96363
   -          2       6.9504 /_ -159.9   0.96539    12.470        2-3     12.026 /_ -130.0   0.96439
   -          3       6.9319 /_   80.1   0.96283    12.470        3-1     12.017 /_  110.0   0.96367
165450 ...... 1       6.9366 /_  -40.0   0.96347    12.470        1-2     12.016 /_   -9.9   0.96363
   -          2       6.9504 /_ -159.9   0.96539    12.470        2-3     12.026 /_ -130.0   0.96439
   -          3       6.9319 /_   80.1   0.96283    12.470        3-1     12.017 /_  110.0   0.96367
165453 ...... 1       6.9329 /_  -40.1   0.96297    12.470        1-2      12.01 /_  -10.0    0.9631
   -          2       6.9478 /_ -159.9   0.96502    12.470        2-3      12.02 /_ -130.0   0.96394
   -          3       6.9273 /_   80.0   0.96219    12.470        3-1      12.01 /_  110.0   0.96314
165454 ...... 1       6.9324 /_  -40.1   0.96289    12.470        1-2     12.009 /_  -10.0   0.96302
   -          2       6.9472 /_ -159.9   0.96494    12.470        2-3     12.019 /_ -130.0   0.96386
   -          3       6.9268 /_   80.0   0.96211    12.470        3-1     12.009 /_  110.0   0.96306
165451 ...... 1       6.9338 /_  -40.1   0.96309    12.470        1-2     12.012 /_  -10.0   0.96324
   -          2       6.9489 /_ -159.9   0.96518    12.470        2-3     12.022 /_ -130.0   0.96407
   -          3       6.9282 /_   80.0   0.96231    12.470        3-1     12.012 /_  110.0   0.96327
238402 ...... 1        6.932 /_  -40.1   0.96284    12.470        1-2     12.008 /_  -10.0   0.96297
   -          2       6.9468 /_ -159.9   0.96489    12.470        2-3     12.019 /_ -130.0   0.96381
   -          3       6.9264 /_   80.0   0.96206    12.470        3-1     12.009 /_  110.0   0.96301
165455 ...... 1       6.9295 /_  -40.1   0.96249    12.470        1-2     12.004 /_  -10.0   0.96262
   -          2       6.9443 /_ -159.9   0.96454    12.470        2-3     12.014 /_ -130.0   0.96346
   -          3       6.9239 /_   80.0   0.96171    12.470        3-1     12.004 /_  110.0   0.96266
165456 ...... 1       6.9295 /_  -40.1   0.96249    12.470        1-2     12.004 /_  -10.0   0.96262
   -          2       6.9443 /_ -159.9   0.96454    12.470        2-3     12.014 /_ -130.0   0.96346
   -          3       6.9239 /_   80.0   0.96171    12.470        3-1     12.004 /_  110.0   0.96266
165452 ...... 1       6.9305 /_  -40.1   0.96262    12.470        1-2     12.006 /_  -10.0   0.96276
   -          2       6.9453 /_ -159.9   0.96468    12.470        2-3     12.016 /_ -130.0   0.96359
   -          3       6.9249 /_   80.0   0.96185    12.470        3-1     12.006 /_  110.0    0.9628
283563 ...... 1       6.9297 /_  -40.1   0.96252    12.470        1-2     12.004 /_  -10.0   0.96265
   -          2       6.9445 /_ -159.9   0.96457    12.470        2-3     12.015 /_ -130.0   0.96348
   -          3       6.9241 /_   80.0   0.96174    12.470        3-1     12.005 /_  110.0   0.96269
165457 ...... 1       6.9294 /_  -40.1   0.96247    12.470        1-2     12.004 /_  -10.0   0.96261
   -          2       6.9442 /_ -159.9   0.96453    12.470        2-3     12.014 /_ -130.0   0.96344
   -          3       6.9238 /_   80.0    0.9617    12.470        3-1     12.004 /_  110.0   0.96265
165458 ...... 1        6.933 /_  -40.1   0.96297    12.470        1-2      12.01 /_  -10.0   0.96312
   -          2        6.948 /_ -159.9   0.96506    12.470        2-3     12.021 /_ -130.0   0.96395
   -          3       6.9273 /_   80.0   0.96219    12.470        3-1      12.01 /_  110.0   0.96314
165459 ...... 1        6.933 /_  -40.1   0.96298    12.470        1-2      12.01 /_  -10.0   0.96312
   -          2        6.948 /_ -159.9   0.96506    12.470        2-3     12.021 /_ -130.0   0.96396
   -          3       6.9274 /_   80.0   0.96219    12.470        3-1      12.01 /_  110.0   0.96315
165460 ...... 1       6.9328 /_  -40.1   0.96294    12.470        1-2      12.01 /_  -10.0   0.96309
   -          2       6.9478 /_ -159.9   0.96503    12.470        2-3      12.02 /_ -130.0   0.96393
   -          3       6.9271 /_   80.0   0.96216    12.470        3-1      12.01 /_  110.0   0.96312
165461 ...... 1       6.9299 /_  -40.1   0.96254    12.470        1-2     12.005 /_  -10.0   0.96268
   -          2       6.9449 /_ -159.9   0.96463    12.470        2-3     12.015 /_ -130.0   0.96352
   -          3       6.9242 /_   80.0   0.96176    12.470        3-1     12.005 /_  109.9   0.96271
165463 ...... 1        6.929 /_  -40.1   0.96242    12.470        1-2     12.003 /_  -10.0   0.96256
   -          2        6.944 /_ -159.9    0.9645    12.470        2-3     12.014 /_ -130.0    0.9634
   -          3       6.9233 /_   80.0   0.96163    12.470        3-1     12.003 /_  109.9   0.96259
165462 ...... 1       6.9283 /_  -40.1   0.96232    12.470        1-2     12.002 /_  -10.0   0.96246
   -          2       6.9433 /_ -159.9    0.9644    12.470        2-3     12.012 /_ -130.0    0.9633
   -          3       6.9226 /_   80.0   0.96153    12.470        3-1     12.002 /_  109.9   0.96249
165465 ...... 1       6.9289 /_  -40.1   0.96241    12.470        1-2     12.003 /_  -10.0   0.96255
   -          2       6.9439 /_ -159.9   0.96449    12.470        2-3     12.013 /_ -130.0   0.96339
   -          3       6.9232 /_   80.0   0.96162    12.470        3-1     12.003 /_  109.9   0.96258
165466 ...... 1       6.9299 /_  -40.1   0.96254    12.470        1-2     12.005 /_  -10.0   0.96268
   -          2       6.9449 /_ -159.9   0.96462    12.470        2-3     12.015 /_ -130.0   0.96352
   -          3       6.9242 /_   80.0   0.96175    12.470        3-1     12.005 /_  109.9   0.96271
165467 ...... 1       6.9212 /_  -40.2   0.96133    12.470        1-2     11.991 /_  -10.0   0.96162
   -          2        6.939 /_ -160.0   0.96381    12.470        2-3     12.002 /_ -130.1   0.96247
   -          3       6.9148 /_   80.0   0.96045    12.470        3-1      11.99 /_  109.9   0.96149
165468 ...... 1       6.9206 /_  -40.2   0.96125    12.470        1-2      11.99 /_  -10.1   0.96153
   -          2       6.9388 /_ -160.0   0.96378    12.470        2-3     12.001 /_ -130.1   0.96241
   -          3       6.9138 /_   79.9   0.96031    12.470        3-1     11.989 /_  109.9    0.9614
165475 ...... 1       6.9178 /_  -40.2   0.96087    12.470        1-2     11.985 /_  -10.1   0.96114
   -          2       6.9364 /_ -160.0   0.96345    12.470        2-3     11.997 /_ -130.1   0.96204
   -          3       6.9107 /_   79.9   0.95988    12.470        3-1     11.984 /_  109.9   0.96101
165476 ...... 1       6.9178 /_  -40.2   0.96087    12.470        1-2     11.985 /_  -10.1   0.96114
   -          2       6.9364 /_ -160.0   0.96345    12.470        2-3     11.997 /_ -130.1   0.96204
   -          3       6.9107 /_   79.9   0.95987    12.470        3-1     11.984 /_  109.9   0.96101
165477 ...... 1       6.9175 /_  -40.2   0.96082    12.470        1-2     11.985 /_  -10.1   0.96109
   -          2        6.936 /_ -160.0    0.9634    12.470        2-3     11.996 /_ -130.1   0.96199
   -          3       6.9103 /_   79.9   0.95983    12.470        3-1     11.983 /_  109.9   0.96096
273626 ...... 1       6.9184 /_  -40.2   0.96095    12.470        1-2     11.986 /_  -10.1   0.96122
   -          2        6.937 /_ -160.0   0.96353    12.470        2-3     11.998 /_ -130.1   0.96212
   -          3       6.9113 /_   79.9   0.95996    12.470        3-1     11.985 /_  109.9   0.96109
165469 ...... 1         6.92 /_  -40.2   0.96116    12.470        1-2     11.989 /_  -10.1   0.96144
   -          2       6.9386 /_ -160.0   0.96375    12.470        2-3         12 /_ -130.1   0.96234
   -          3       6.9128 /_   79.9   0.96017    12.470        3-1     11.987 /_  109.9    0.9613
165480 ...... 1       6.9192 /_  -40.3   0.96106    12.470        1-2     11.988 /_  -10.1   0.96132
   -          2       6.9385 /_ -160.0   0.96374    12.470        2-3     11.999 /_ -130.1   0.96227
   -          3       6.9115 /_   79.9   0.95998    12.470        3-1     11.986 /_  109.8   0.96119
165478 ...... 1       6.9187 /_  -40.3   0.96099    12.470        1-2     11.987 /_  -10.1   0.96125
   -          2       6.9384 /_ -160.0   0.96372    12.470        2-3     11.999 /_ -130.2   0.96222
   -          3       6.9105 /_   79.9   0.95986    12.470        3-1     11.985 /_  109.8    0.9611
165479 ...... 1       6.9182 /_  -40.3   0.96092    12.470        1-2     11.986 /_  -10.1   0.96117
   -          2       6.9383 /_ -160.1   0.96372    12.470        2-3     11.998 /_ -130.2   0.96217
   -          3       6.9096 /_   79.8   0.95973    12.470        3-1     11.984 /_  109.8   0.96102
165484 ...... 1       6.9184 /_  -40.3   0.96095    12.470        1-2     11.986 /_  -10.1   0.96121
   -          2       6.9381 /_ -160.0   0.96368    12.470        2-3     11.998 /_ -130.2   0.96218
   -          3       6.9103 /_   79.9   0.95982    12.470        3-1     11.984 /_  109.8   0.96106
165483 ...... 1       6.9185 /_  -40.3   0.96096    12.470        1-2     11.986 /_  -10.1   0.96121
   -          2       6.9381 /_ -160.0   0.96369    12.470        2-3     11.998 /_ -130.2   0.96218
   -          3       6.9103 /_   79.9   0.95982    12.470        3-1     11.985 /_  109.8   0.96107
261839 ...... 1       6.9185 /_  -40.3   0.96096    12.470        1-2     11.986 /_  -10.1   0.96122
   -          2       6.9382 /_ -160.0   0.96369    12.470        2-3     11.998 /_ -130.2   0.96219
   -          3       6.9103 /_   79.9   0.95983    12.470        3-1     11.985 /_  109.8   0.96107
261838 ...... 1       6.9185 /_  -40.3   0.96096    12.470        1-2     11.986 /_  -10.1   0.96122
   -          2       6.9382 /_ -160.0    0.9637    12.470        2-3     11.998 /_ -130.2   0.96219
   -          3       6.9103 /_   79.9   0.95983    12.470        3-1     11.985 /_  109.8   0.96107
165486 ...... 1       6.9181 /_  -40.3    0.9609    12.470        1-2     11.986 /_  -10.1   0.96116
   -          2       6.9384 /_ -160.1   0.96372    12.470        2-3     11.998 /_ -130.2   0.96217
   -          3       6.9096 /_   79.8   0.95972    12.470        3-1     11.984 /_  109.8   0.96101
165485 ...... 1        6.918 /_  -40.3   0.96089    12.470        1-2     11.986 /_  -10.1   0.96116
   -          2       6.9384 /_ -160.1   0.96372    12.470        2-3     11.998 /_ -130.2   0.96217
   -          3       6.9096 /_   79.8   0.95972    12.470        3-1     11.984 /_  109.8   0.96101
165487 ...... 1       6.9175 /_  -40.3   0.96082    12.470        1-2     11.984 /_  -10.2   0.96106
   -          2       6.9383 /_ -160.1   0.96371    12.470        2-3     11.997 /_ -130.2    0.9621
   -          3       6.9082 /_   79.8   0.95954    12.470        3-1     11.982 /_  109.8    0.9609
165488 ...... 1       6.9168 /_  -40.3   0.96072    12.470
165489 ...... 1       6.9168 /_  -40.3   0.96073    12.470
165491 ...... 1       6.9164 /_  -40.3   0.96067    12.470
165490 ...... 1        6.916 /_  -40.3   0.96061    12.470
165494 ...... 1       6.9156 /_  -40.3   0.96055    12.470
165492 ...... 1       6.9155 /_  -40.3   0.96054    12.470
165493 ...... 1       6.9152 /_  -40.3   0.96051    12.470
283952 ...... 1        6.917 /_  -40.4   0.96075    12.470        1-2     11.983 /_  -10.2   0.96095
   -          2        6.938 /_ -160.1   0.96367    12.470        2-3     11.996 /_ -130.2   0.96202
   -          3       6.9068 /_   79.8   0.95933    12.470        3-1     11.981 /_  109.7   0.96077
165500 ...... 1       6.9162 /_  -40.4   0.96064    12.470        1-2     11.981 /_  -10.2   0.96077
   -          2       6.9376 /_ -160.2   0.96361    12.470        2-3     11.995 /_ -130.3   0.96189
   -          3        6.904 /_   79.7   0.95894    12.470        3-1     11.978 /_  109.7   0.96054
165501 ...... 1       6.9162 /_  -40.4   0.96064    12.470        1-2     11.981 /_  -10.2   0.96077
   -          2       6.9376 /_ -160.2   0.96361    12.470        2-3     11.995 /_ -130.3   0.96189
   -          3        6.904 /_   79.7   0.95894    12.470        3-1     11.978 /_  109.7   0.96053
165495 ...... 1       6.9162 /_  -40.4   0.96065    12.470        1-2     11.981 /_  -10.2   0.96077
   -          2       6.9376 /_ -160.2   0.96362    12.470        2-3     11.995 /_ -130.3    0.9619
   -          3        6.904 /_   79.7   0.95895    12.470        3-1     11.978 /_  109.7   0.96054
165503 ...... 1       6.9161 /_  -40.4   0.96062    12.470        1-2     11.981 /_  -10.2   0.96075
   -          2       6.9375 /_ -160.2    0.9636    12.470        2-3     11.995 /_ -130.3   0.96187
   -          3       6.9039 /_   79.7   0.95893    12.470        3-1     11.978 /_  109.7   0.96052
165504 ...... 1       6.8624 /_  -40.8   0.95317    12.470        1-2     11.891 /_  -10.5   0.95357
   -          2       6.8918 /_ -160.4   0.95726    12.470        2-3     11.902 /_ -130.6   0.95443
   -          3       6.8399 /_   79.4   0.95004    12.470        3-1     11.877 /_  109.4   0.95246
181883 ...... 1       6.8561 /_  -41.0    0.9523    12.470        1-2      11.88 /_  -10.8   0.95265
   -          2       6.8858 /_ -160.6   0.95643    12.470        2-3     11.891 /_ -130.9   0.95355
   -          3       6.8324 /_   79.2     0.949    12.470        3-1     11.865 /_  109.1   0.95152
158676 ...... 1       6.8561 /_  -41.0    0.9523    12.470        1-2      11.88 /_  -10.8   0.95265
   -          2       6.8858 /_ -160.6   0.95643    12.470        2-3     11.891 /_ -130.9   0.95355
   -          3       6.8324 /_   79.2     0.949    12.470        3-1     11.865 /_  109.1   0.95152
181889 ...... 1       6.8534 /_  -41.0   0.95192    12.470        1-2     11.875 /_  -10.8   0.95226
   -          2       6.8829 /_ -160.6   0.95602    12.470        2-3     11.886 /_ -130.9   0.95318
   -          3       6.8301 /_   79.2   0.94868    12.470        3-1     11.861 /_  109.1   0.95117
181890 ...... 1       6.8534 /_  -41.0   0.95192    12.470        1-2     11.875 /_  -10.8   0.95226
   -          2       6.8829 /_ -160.6   0.95601    12.470        2-3     11.886 /_ -130.9   0.95318
   -          3       6.8301 /_   79.2   0.94868    12.470        3-1     11.861 /_  109.1   0.95117
181891 ...... 1        6.851 /_  -41.0   0.95158    12.470        1-2      11.87 /_  -10.8   0.95192
   -          2       6.8802 /_ -160.7   0.95564    12.470        2-3     11.882 /_ -130.9   0.95285
   -          3       6.8282 /_   79.2   0.94841    12.470        3-1     11.857 /_  109.1   0.95086
181892 ...... 1       6.8509 /_  -41.0   0.95157    12.470        1-2      11.87 /_  -10.8   0.95191
   -          2       6.8801 /_ -160.7   0.95563    12.470        2-3     11.882 /_ -130.9   0.95284
   -          3       6.8281 /_   79.2   0.94841    12.470        3-1     11.857 /_  109.1   0.95085
181884 ...... 1        6.854 /_  -41.0     0.952    12.470        1-2     11.876 /_  -10.8   0.95234
   -          2       6.8835 /_ -160.6    0.9561    12.470        2-3     11.887 /_ -130.9   0.95325
   -          3       6.8305 /_   79.2   0.94874    12.470        3-1     11.862 /_  109.1   0.95124
181886 ...... 1       6.8535 /_  -41.0   0.95193    12.470        1-2     11.875 /_  -10.8   0.95227
   -          2       6.8829 /_ -160.6   0.95602    12.470        2-3     11.886 /_ -130.9   0.95318
   -          3       6.8301 /_   79.2   0.94868    12.470        3-1     11.861 /_  109.1   0.95117
181888 ...... 1       6.8522 /_  -41.0   0.95175    12.470        1-2     11.873 /_  -10.8   0.95209
   -          2       6.8815 /_ -160.6   0.95582    12.470        2-3     11.884 /_ -130.9   0.95301
   -          3       6.8291 /_   79.2   0.94854    12.470        3-1     11.859 /_  109.1   0.95101
181885 ...... 1       6.8513 /_  -41.0   0.95163    12.470        1-2     11.871 /_  -10.8   0.95197
   -          2       6.8805 /_ -160.7   0.95569    12.470        2-3     11.883 /_ -130.9   0.95289
   -          3       6.8284 /_   79.2   0.94845    12.470        3-1     11.858 /_  109.1    0.9509
181887 ...... 1       6.8512 /_  -41.0   0.95161    12.470        1-2     11.871 /_  -10.8   0.95195
   -          2       6.8804 /_ -160.7   0.95568    12.470        2-3     11.882 /_ -130.9   0.95288
   -          3       6.8283 /_   79.2   0.94844    12.470        3-1     11.858 /_  109.1   0.95089
181893 ...... 1       6.8534 /_  -41.0   0.95192    12.470        1-2     11.875 /_  -10.8   0.95226
   -          2       6.8829 /_ -160.6   0.95601    12.470        2-3     11.886 /_ -130.9   0.95317
   -          3         6.83 /_   79.2   0.94867    12.470        3-1     11.861 /_  109.1   0.95116
181894 ...... 1       6.8509 /_  -41.0   0.95157    12.470        1-2      11.87 /_  -10.8   0.95191
   -          2       6.8801 /_ -160.7   0.95563    12.470        2-3     11.882 /_ -130.9   0.95283
...
X_0862099 ... 1      0.11497 /_  -70.2   0.95738     0.208        1-2    0.19911 /_  -40.2   0.95725
   -          2      0.11495 /_  169.9   0.95724     0.208        2-3    0.19913 /_ -160.1   0.95735
   -          3      0.11498 /_   49.9   0.95748     0.208        3-1    0.19916 /_   79.8   0.95749
S1X_0862099 . 1      0.11444 /_  -70.1     0.953     0.208        1-2    0.19823 /_  -40.1   0.95302
   -          2      0.11447 /_  169.9   0.95319     0.208        2-3    0.19832 /_ -160.1   0.95347
   -          3      0.11452 /_   49.9   0.95362     0.208        3-1    0.19829 /_   79.8   0.95331
S2X_0862099 . 1      0.11444 /_  -70.1     0.953     0.208        1-2    0.19823 /_  -40.1   0.95302
   -          2      0.11447 /_  169.9   0.95319     0.208        2-3    0.19832 /_ -160.1   0.95347
   -          3      0.11452 /_   49.9   0.95362     0.208        3-1    0.19829 /_   79.8   0.95331
S3X_0862099 . 1      0.11444 /_  -70.1     0.953     0.208        1-2    0.19823 /_  -40.1   0.95302
   -          2      0.11447 /_  169.9   0.95319     0.208        2-3    0.19832 /_ -160.1   0.95347
   -          3      0.11452 /_   49.9   0.95362     0.208        3-1    0.19829 /_   79.8   0.95331
X_1000663 ... 1       0.2308 /_  -39.6   0.96166     0.416        1-2    0.39977 /_   -9.6   0.96169
   -          2      0.23088 /_ -159.5   0.96197     0.416        2-3    0.39977 /_ -129.6   0.96167
   -          3      0.23073 /_   80.5   0.96136     0.416        3-1    0.39975 /_  110.4   0.96163
S1X_1000663 . 1      0.22987 /_  -39.5   0.95777     0.416        1-2    0.39811 /_   -9.5   0.95768
   -          2      0.22989 /_ -159.5   0.95785     0.416        2-3    0.39802 /_ -129.5   0.95747
   -          3       0.2297 /_   80.5   0.95708     0.416        3-1    0.39806 /_  110.5   0.95756
X_1000252 ... 2      0.23061 /_ -159.8   0.96085     0.416
S1X_1000252 . 2      0.22915 /_ -159.8   0.95476     0.416
X_1001746 ... 1      0.11457 /_  -70.8   0.95407     0.208        1-2    0.19839 /_  -40.8   0.95378
   -          2      0.11457 /_  169.2   0.95403     0.208        2-3    0.19855 /_ -160.8   0.95455
   -          3      0.11467 /_   49.2   0.95484     0.208        3-1    0.19856 /_   79.2   0.95461
S1X_1001746 . 1      0.11352 /_  -70.8    0.9453     0.208        1-2    0.19663 /_  -40.7   0.94533
   -          2       0.1136 /_  169.3   0.94596     0.208        2-3    0.19693 /_ -160.7    0.9468
   -          3      0.11374 /_   49.2   0.94711     0.208        3-1    0.19682 /_   79.2   0.94625
S2X_1001746 . 1      0.11352 /_  -70.8    0.9453     0.208        1-2    0.19663 /_  -40.7   0.94533
   -          2       0.1136 /_  169.3   0.94596     0.208        2-3    0.19693 /_ -160.7    0.9468
   -          3      0.11374 /_   49.2   0.94711     0.208        3-1    0.19682 /_   79.2   0.94625
S3X_1001746 . 1      0.11352 /_  -70.8    0.9453     0.208        1-2    0.19663 /_  -40.7   0.94533
   -          2       0.1136 /_  169.3   0.94596     0.208        2-3    0.19693 /_ -160.7    0.9468
   -          3      0.11374 /_   49.2   0.94711     0.208        3-1    0.19682 /_   79.2   0.94625
X_1000502 ... 2       0.2305 /_ -160.1   0.96041     0.416
S1X_1000502 . 2      0.22754 /_ -160.0   0.94806     0.416
X_1000824 ... 1      0.22985 /_  -40.2   0.95768     0.416        1-2    0.39811 /_  -10.1    0.9577
   -          2      0.23027 /_ -160.1   0.95943     0.416        2-3    0.39835 /_ -130.1   0.95827
   -          3      0.22954 /_   79.9   0.95639     0.416        3-1    0.39805 /_  109.8   0.95754
S1X_1000824 . 1      0.22954 /_  -40.2   0.95639     0.416        1-2    0.39756 /_  -10.1   0.95636
   -          2      0.22994 /_ -160.0   0.95806     0.416        2-3    0.39777 /_ -130.1   0.95687
   -          3       0.2292 /_   79.9   0.95496     0.416        3-1    0.39748 /_  109.9   0.95618
S2X_1000824 . 1      0.22954 /_  -40.2   0.95639     0.416        1-2    0.39756 /_  -10.1   0.95636
   -          2      0.22994 /_ -160.0   0.95806     0.416        2-3    0.39777 /_ -130.1   0.95687
   -          3       0.2292 /_   79.9   0.95496     0.416        3-1    0.39748 /_  109.9   0.95618
S3X_1000824 . 1      0.22954 /_  -40.2   0.95639     0.416        1-2    0.39756 /_  -10.1   0.95636
   -          2      0.22994 /_ -160.0   0.95806     0.416        2-3    0.39777 /_ -130.1   0.95687
   -          3       0.2292 /_   79.9   0.95496     0.416        3-1    0.39748 /_  109.9   0.95618
X_1001745 ... 1      0.11456 /_  -70.8   0.95392     0.208        1-2    0.19835 /_  -40.8   0.95363
   -          2      0.11455 /_  169.2   0.95388     0.208        2-3    0.19852 /_ -160.8    0.9544
   -          3      0.11465 /_   49.2   0.95469     0.208        3-1    0.19853 /_   79.2   0.95446
S1X_1001745 . 1       0.1135 /_  -70.8   0.94516     0.208        1-2     0.1966 /_  -40.7   0.94518
   -          2      0.11358 /_  169.3   0.94581     0.208        2-3     0.1969 /_ -160.7   0.94665
   -          3      0.11372 /_   49.2   0.94697     0.208        3-1    0.19679 /_   79.2    0.9461
S2X_1001745 . 1       0.1135 /_  -70.8   0.94516     0.208        1-2     0.1966 /_  -40.7   0.94518
   -          2      0.11358 /_  169.3   0.94581     0.208        2-3     0.1969 /_ -160.7   0.94665
   -          3      0.11372 /_   49.2   0.94697     0.208        3-1    0.19679 /_   79.2    0.9461
S3X_1001745 . 1       0.1135 /_  -70.8   0.94516     0.208        1-2     0.1966 /_  -40.7   0.94518
   -          2      0.11358 /_  169.3   0.94581     0.208        2-3     0.1969 /_ -160.7   0.94665
   -          3      0.11372 /_   49.2   0.94697     0.208        3-1    0.19679 /_   79.2    0.9461
X_1001329 ... 1      0.11449 /_  -70.8   0.95338     0.208        1-2    0.19824 /_  -40.7   0.95309
   -          2      0.11449 /_  169.3   0.95335     0.208        2-3    0.19841 /_ -160.7   0.95388
   -          3      0.11459 /_   49.3   0.95417     0.208        3-1    0.19842 /_   79.2   0.95392
S1X_1001329 . 1      0.11396 /_  -70.8   0.94899     0.208        1-2    0.19736 /_  -40.7   0.94886
   -          2        0.114 /_  169.3   0.94931     0.208        2-3     0.1976 /_ -160.7   0.95001
   -          3      0.11412 /_   49.3   0.95031     0.208        3-1    0.19755 /_   79.2   0.94974
S2X_1001329 . 1      0.11396 /_  -70.8   0.94899     0.208        1-2    0.19736 /_  -40.7   0.94886
   -          2        0.114 /_  169.3   0.94931     0.208        2-3     0.1976 /_ -160.7   0.95001
   -          3      0.11412 /_   49.3   0.95031     0.208        3-1    0.19755 /_   79.2   0.94974
S3X_1001329 . 1      0.11396 /_  -70.8   0.94899     0.208        1-2    0.19736 /_  -40.7   0.94886
   -          2        0.114 /_  169.3   0.94931     0.208        2-3     0.1976 /_ -160.7   0.95001
   -          3      0.11412 /_   49.3   0.95031     0.208        3-1    0.19755 /_   79.2   0.94974
X_1001359 ... 1      0.11412 /_  -71.1   0.95028     0.208        1-2     0.1976 /_  -41.1   0.94999
   -          2      0.11411 /_  169.0   0.95024     0.208        2-3    0.19776 /_ -161.0   0.95076
   -          3      0.11421 /_   49.0   0.95104     0.208        3-1    0.19777 /_   78.9   0.95082
S1X_1001359 . 1      0.11237 /_  -71.0   0.93569     0.208        1-2    0.19467 /_  -41.0   0.93591
   -          2       0.1125 /_  169.0   0.93681     0.208        2-3    0.19507 /_ -161.0   0.93785
   -          3      0.11266 /_   49.0   0.93816     0.208        3-1    0.19488 /_   78.9   0.93691
S2X_1001359 . 1      0.11237 /_  -71.0   0.93569     0.208        1-2    0.19467 /_  -41.0   0.93591
   -          2       0.1125 /_  169.0   0.93681     0.208        2-3    0.19507 /_ -161.0   0.93785
   -          3      0.11266 /_   49.0   0.93816     0.208        3-1    0.19488 /_   78.9   0.93691
S3X_1001359 . 1      0.11237 /_  -71.0   0.93569     0.208        1-2    0.19467 /_  -41.0   0.93591
   -          2       0.1125 /_  169.0   0.93681     0.208        2-3    0.19507 /_ -161.0   0.93785
   -          3      0.11266 /_   49.0   0.93816     0.208        3-1    0.19488 /_   78.9   0.93691
X_1001330 ... 1      0.11454 /_  -70.8    0.9538     0.208        1-2    0.19833 /_  -40.8   0.95351
   -          2      0.11454 /_  169.2   0.95377     0.208        2-3    0.19849 /_ -160.8    0.9543
   -          3      0.11464 /_   49.2   0.95459     0.208        3-1     0.1985 /_   79.2   0.95434
S1X_1001330 . 1      0.11401 /_  -70.8   0.94941     0.208        1-2    0.19745 /_  -40.8   0.94928
   -          2      0.11405 /_  169.3   0.94973     0.208        2-3    0.19769 /_ -160.7   0.95043
   -          3      0.11417 /_   49.2   0.95073     0.208        3-1    0.19763 /_   79.2   0.95016
S2X_1001330 . 1      0.11401 /_  -70.8   0.94941     0.208        1-2    0.19745 /_  -40.8   0.94928
   -          2      0.11405 /_  169.3   0.94973     0.208        2-3    0.19769 /_ -160.7   0.95043
   -          3      0.11417 /_   49.2   0.95073     0.208        3-1    0.19763 /_   79.2   0.95016
S3X_1001330 . 1      0.11401 /_  -70.8   0.94941     0.208        1-2    0.19745 /_  -40.8   0.94928
   -          2      0.11405 /_  169.3   0.94973     0.208        2-3    0.19769 /_ -160.7   0.95043
   -          3      0.11417 /_   49.2   0.95073     0.208        3-1    0.19763 /_   79.2   0.95016
S4X_1001330 . 1      0.11401 /_  -70.8   0.94941     0.208        1-2    0.19745 /_  -40.8   0.94928
   -          2      0.11405 /_  169.3   0.94973     0.208        2-3    0.19769 /_ -160.7   0.95043
   -          3      0.11417 /_   49.2   0.95073     0.208        3-1    0.19763 /_   79.2   0.95016
S5X_1001330 . 1      0.11401 /_  -70.8   0.94941     0.208        1-2    0.19745 /_  -40.8   0.94928
   -          2      0.11405 /_  169.3   0.94973     0.208        2-3    0.19769 /_ -160.7   0.95043
   -          3      0.11417 /_   49.2   0.95073     0.208        3-1    0.19763 /_   79.2   0.95016
S6X_1001330 . 1      0.11401 /_  -70.8   0.94941     0.208        1-2    0.19745 /_  -40.8   0.94928
   -          2      0.11405 /_  169.3   0.94973     0.208        2-3    0.19769 /_ -160.7   0.95043
   -          3      0.11417 /_   49.2   0.95073     0.208        3-1    0.19763 /_   79.2   0.95016
X_1000672 ... 1      0.22948 /_  -40.3   0.95614     0.416
S1X_1000672 . 1      0.22855 /_  -40.3   0.95225     0.416
X_1001708 ... 1      0.11395 /_  -71.2   0.94889     0.208        1-2    0.19731 /_  -41.1   0.94862
   -          2      0.11396 /_  168.9     0.949     0.208        2-3    0.19752 /_ -161.1    0.9496
   -          3      0.11407 /_   48.9   0.94985     0.208        3-1     0.1975 /_   78.8   0.94951
S1X_1001708 . 1      0.11133 /_  -71.1   0.92704     0.208        1-2    0.19292 /_  -41.0   0.92751
   -          2      0.11155 /_  169.0    0.9289     0.208        2-3    0.19349 /_ -161.1   0.93025
   -          3      0.11174 /_   48.9    0.9305     0.208        3-1    0.19317 /_   78.8   0.92868
S2X_1001708 . 1      0.11133 /_  -71.1   0.92704     0.208        1-2    0.19292 /_  -41.0   0.92751
   -          2      0.11155 /_  169.0    0.9289     0.208        2-3    0.19349 /_ -161.1   0.93025
   -          3      0.11174 /_   48.9    0.9305     0.208        3-1    0.19317 /_   78.8   0.92868
S3X_1001708 . 1      0.11133 /_  -71.1   0.92704     0.208        1-2    0.19292 /_  -41.0   0.92751
   -          2      0.11155 /_  169.0    0.9289     0.208        2-3    0.19349 /_ -161.1   0.93025
   -          3      0.11174 /_   48.9    0.9305     0.208        3-1    0.19317 /_   78.8   0.92868
X_1001345 ... 1      0.11425 /_  -70.9   0.95136     0.208        1-2    0.19782 /_  -40.9   0.95108
   -          2      0.11426 /_  169.2   0.95149     0.208        2-3    0.19805 /_ -160.8   0.95217
   -          3      0.11438 /_   49.1   0.95245     0.208        3-1    0.19803 /_   79.1   0.95205
S1X_1001345 . 1      0.11372 /_  -70.9   0.94697     0.208        1-2    0.19695 /_  -40.8   0.94685
   -          2      0.11378 /_  169.2   0.94746     0.208        2-3    0.19725 /_ -160.8    0.9483
   -          3      0.11391 /_   49.1   0.94859     0.208        3-1    0.19716 /_   79.1   0.94786
S2X_1001345 . 1      0.11372 /_  -70.9   0.94697     0.208        1-2    0.19695 /_  -40.8   0.94685
   -          2      0.11378 /_  169.2   0.94746     0.208        2-3    0.19725 /_ -160.8    0.9483
   -          3      0.11391 /_   49.1   0.94859     0.208        3-1    0.19716 /_   79.1   0.94786
S3X_1001345 . 1      0.11372 /_  -70.9   0.94697     0.208        1-2    0.19695 /_  -40.8   0.94685
   -          2      0.11378 /_  169.2   0.94746     0.208        2-3    0.19725 /_ -160.8    0.9483
   -          3      0.11391 /_   49.1   0.94859     0.208        3-1    0.19716 /_   79.1   0.94786
X_1000933 ... 1      0.11424 /_  -70.9   0.95131     0.208        1-2    0.19781 /_  -40.9   0.95103
   -          2      0.11426 /_  169.2   0.95145     0.208        2-3    0.19804 /_ -160.8   0.95213
   -          3      0.11437 /_   49.1   0.95241     0.208        3-1    0.19802 /_   79.1     0.952
S1X_1000933 . 1      0.11414 /_  -70.9   0.95043     0.208        1-2    0.19764 /_  -40.9   0.95019
   -          2      0.11416 /_  169.2   0.95064     0.208        2-3    0.19788 /_ -160.8   0.95135
   -          3      0.11428 /_   49.1   0.95163     0.208        3-1    0.19784 /_   79.1   0.95116
S2X_1000933 . 1      0.11414 /_  -70.9   0.95043     0.208        1-2    0.19764 /_  -40.9   0.95019
   -          2      0.11416 /_  169.2   0.95064     0.208        2-3    0.19788 /_ -160.8   0.95135
   -          3      0.11428 /_   49.1   0.95163     0.208        3-1    0.19784 /_   79.1   0.95116
S3X_1000933 . 1      0.11414 /_  -70.9   0.95043     0.208        1-2    0.19764 /_  -40.9   0.95019
   -          2      0.11416 /_  169.2   0.95064     0.208        2-3    0.19788 /_ -160.8   0.95135
   -          3      0.11428 /_   49.1   0.95163     0.208        3-1    0.19784 /_   79.1   0.95116
S4X_1000933 . 1      0.11414 /_  -70.9   0.95043     0.208        1-2    0.19764 /_  -40.9   0.95019
   -          2      0.11416 /_  169.2   0.95064     0.208        2-3    0.19788 /_ -160.8   0.95135
   -          3      0.11428 /_   49.1   0.95163     0.208        3-1    0.19784 /_   79.1   0.95116
S5X_1000933 . 1      0.11414 /_  -70.9   0.95043     0.208        1-2    0.19764 /_  -40.9   0.95019
   -          2      0.11416 /_  169.2   0.95064     0.208        2-3    0.19788 /_ -160.8   0.95135
   -          3      0.11428 /_   49.1   0.95163     0.208        3-1    0.19784 /_   79.1   0.95116
S6X_1000933 . 1      0.11414 /_  -70.9   0.95043     0.208        1-2    0.19764 /_  -40.9   0.95019
   -          2      0.11416 /_  169.2   0.95064     0.208        2-3    0.19788 /_ -160.8   0.95135
   -          3      0.11428 /_   49.1   0.95163     0.208        3-1    0.19784 /_   79.1   0.95116
S7X_1000933 . 1      0.11414 /_  -70.9   0.95043     0.208        1-2    0.19764 /_  -40.9   0.95019
   -          2      0.11416 /_  169.2   0.95064     0.208        2-3    0.19788 /_ -160.8   0.95135
   -          3      0.11428 /_   49.1   0.95163     0.208        3-1    0.19784 /_   79.1   0.95116
S8X_1000933 . 1      0.11414 /_  -70.9   0.95043     0.208        1-2    0.19764 /_  -40.9   0.95019
   -          2      0.11416 /_  169.2   0.95064     0.208        2-3    0.19788 /_ -160.8   0.95135
   -          3      0.11428 /_   49.1   0.95163     0.208        3-1    0.19784 /_   79.1   0.95116
S9X_1000933 . 1      0.11414 /_  -70.9   0.95043     0.208        1-2    0.19764 /_  -40.9   0.95019
   -          2      0.11416 /_  169.2   0.95064     0.208        2-3    0.19788 /_ -160.8   0.95135
   -          3      0.11428 /_   49.1   0.95163     0.208        3-1    0.19784 /_   79.1   0.95116
S10X_1000933  1      0.11414 /_  -70.9   0.95043     0.208        1-2    0.19764 /_  -40.9   0.95019
   -          2      0.11416 /_  169.2   0.95064     0.208        2-3    0.19788 /_ -160.8   0.95135
   -          3      0.11428 /_   49.1   0.95163     0.208        3-1    0.19784 /_   79.1   0.95116
S11X_1000933  1      0.11414 /_  -70.9   0.95043     0.208        1-2    0.19764 /_  -40.9   0.95019
   -          2      0.11416 /_  169.2   0.95064     0.208        2-3    0.19788 /_ -160.8   0.95135
   -          3      0.11428 /_   49.1   0.95163     0.208        3-1    0.19784 /_   79.1   0.95116
S12X_1000933  1      0.11414 /_  -70.9   0.95043     0.208        1-2    0.19764 /_  -40.9   0.95019
   -          2      0.11416 /_  169.2   0.95064     0.208        2-3    0.19788 /_ -160.8   0.95135
   -          3      0.11428 /_   49.1   0.95163     0.208        3-1    0.19784 /_   79.1   0.95116
S13X_1000933  1      0.11414 /_  -70.9   0.95043     0.208        1-2    0.19764 /_  -40.9   0.95019
   -          2      0.11416 /_  169.2   0.95064     0.208        2-3    0.19788 /_ -160.8   0.95135
   -          3      0.11428 /_   49.1   0.95163     0.208        3-1    0.19784 /_   79.1   0.95116
S14X_1000933  1      0.11414 /_  -70.9   0.95043     0.208        1-2    0.19764 /_  -40.9   0.95019
   -          2      0.11416 /_  169.2   0.95064     0.208        2-3    0.19788 /_ -160.8   0.95135
   -          3      0.11428 /_   49.1   0.95163     0.208        3-1    0.19784 /_   79.1   0.95116
S15X_1000933  1      0.11414 /_  -70.9   0.95043     0.208        1-2    0.19764 /_  -40.9   0.95019
   -          2      0.11416 /_  169.2   0.95064     0.208        2-3    0.19788 /_ -160.8   0.95135
   -          3      0.11428 /_   49.1   0.95163     0.208        3-1    0.19784 /_   79.1   0.95116
X_1001823 ... 1      0.22939 /_  -40.5   0.95575     0.416
S1X_1001823 . 1      0.22801 /_  -40.4   0.95001     0.416
X_1001822 ... 1      0.22868 /_  -40.3   0.95282     0.416        1-2     0.3961 /_  -10.1   0.95285
   -          2      0.22925 /_ -160.0   0.95517     0.416        2-3    0.39635 /_ -130.1   0.95346
   -          3      0.22821 /_   79.9   0.95085     0.416        3-1    0.39597 /_  109.9   0.95254
S1X_1001822 . 1       0.2285 /_  -40.2   0.95205     0.416        1-2    0.39577 /_  -10.1   0.95205
   -          2      0.22905 /_ -160.0   0.95435     0.416        2-3      0.396 /_ -130.1   0.95262
   -          3        0.228 /_   79.9      0.95     0.416        3-1    0.39563 /_  109.9   0.95173
X_1000042 ... 1      0.22941 /_  -40.5   0.95585     0.416
S1X_1000042 . 1      0.22888 /_  -40.5   0.95363     0.416
S2X_1000042 . 1      0.22888 /_  -40.5   0.95363     0.416
S3X_1000042 . 1      0.22888 /_  -40.5   0.95363     0.416
S4X_1000042 . 1      0.22888 /_  -40.5   0.95363     0.416
S5X_1000042 . 1      0.22888 /_  -40.5   0.95363     0.416
S6X_1000042 . 1      0.22888 /_  -40.5   0.95363     0.416
S7X_1000042 . 1      0.22888 /_  -40.5   0.95363     0.416
X_1000077 ... 1      0.22931 /_  -40.5   0.95543     0.416
S1X_1000077 . 1        0.229 /_  -40.5   0.95413     0.416
S2X_1000077 . 1        0.229 /_  -40.5   0.95413     0.416
S3X_1000077 . 1        0.229 /_  -40.5   0.95413     0.416
S4X_1000077 . 1        0.229 /_  -40.5   0.95413     0.416
S5X_1000077 . 1        0.229 /_  -40.5   0.95413     0.416
S6X_1000077 . 1        0.229 /_  -40.5   0.95413     0.416
X_1000474 ... 1       0.2293 /_  -40.5    0.9554     0.416
S1X_1000474 . 1      0.22893 /_  -40.5   0.95384     0.416
S2X_1000474 . 1      0.22893 /_  -40.5   0.95384     0.416
S3X_1000474 . 1      0.22893 /_  -40.5   0.95384     0.416
S4X_1000474 . 1      0.22893 /_  -40.5   0.95384     0.416
S5X_1000474 . 1      0.22893 /_  -40.5   0.95384     0.416
X_1000043 ... 1      0.22931 /_  -40.5   0.95544     0.416
S1X_1000043 . 1        0.229 /_  -40.5   0.95415     0.416
S2X_1000043 . 1        0.229 /_  -40.5   0.95415     0.416
S3X_1000043 . 1        0.229 /_  -40.5   0.95415     0.416
S4X_1000043 . 1        0.229 /_  -40.5   0.95415     0.416
S5X_1000043 . 1        0.229 /_  -40.5   0.95415     0.416
S6X_1000043 . 1        0.229 /_  -40.5   0.95415     0.416
X_1001567 ... 1      0.11418 /_  -71.1   0.95081     0.208        1-2    0.19771 /_  -41.0   0.95051
   -          2      0.11421 /_  169.0   0.95104     0.208        2-3    0.19798 /_ -161.0   0.95185
   -          3      0.11434 /_   49.0   0.95214     0.208        3-1    0.19794 /_   78.9   0.95163
S1X_1001567 . 1      0.11365 /_  -71.0   0.94642     0.208        1-2    0.19683 /_  -41.0   0.94629
   -          2      0.11372 /_  169.0   0.94701     0.208        2-3    0.19718 /_ -161.0   0.94797
   -          3      0.11388 /_   49.0   0.94828     0.208        3-1    0.19707 /_   78.9   0.94745
S2X_1001567 . 1      0.11365 /_  -71.0   0.94642     0.208        1-2    0.19683 /_  -41.0   0.94629
   -          2      0.11372 /_  169.0   0.94701     0.208        2-3    0.19718 /_ -161.0   0.94797
   -          3      0.11388 /_   49.0   0.94828     0.208        3-1    0.19707 /_   78.9   0.94745
S3X_1001567 . 1      0.11365 /_  -71.0   0.94642     0.208        1-2    0.19683 /_  -41.0   0.94629
   -          2      0.11372 /_  169.0   0.94701     0.208        2-3    0.19718 /_ -161.0   0.94797
   -          3      0.11388 /_   49.0   0.94828     0.208        3-1    0.19707 /_   78.9   0.94745
X_1000233 ... 2      0.22807 /_ -160.8   0.95027     0.416
S1X_1000233 . 2      0.22661 /_ -160.8   0.94418     0.416
X_1000569 ... 1      0.11319 /_  -71.6   0.94257     0.208        1-2    0.19607 /_  -41.6   0.94262
   -          2      0.11332 /_  168.5   0.94365     0.208        2-3    0.19648 /_ -161.6   0.94461
   -          3      0.11343 /_   48.4   0.94455     0.208        3-1    0.19626 /_   78.3   0.94354
S1X_1000569 . 1      0.11214 /_  -71.6   0.93382     0.208        1-2    0.19431 /_  -41.5   0.93418
   -          2      0.11236 /_  168.5   0.93561     0.208        2-3    0.19487 /_ -161.5   0.93686
   -          3       0.1125 /_   48.4    0.9368     0.208        3-1    0.19452 /_   78.3    0.9352
S2X_1000569 . 1      0.11214 /_  -71.6   0.93382     0.208        1-2    0.19431 /_  -41.5   0.93418
   -          2      0.11236 /_  168.5   0.93561     0.208        2-3    0.19487 /_ -161.5   0.93686
   -          3       0.1125 /_   48.4    0.9368     0.208        3-1    0.19452 /_   78.3    0.9352
S3X_1000569 . 1      0.11214 /_  -71.6   0.93382     0.208        1-2    0.19431 /_  -41.5   0.93418
   -          2      0.11236 /_  168.5   0.93561     0.208        2-3    0.19487 /_ -161.5   0.93686
   -          3       0.1125 /_   48.4    0.9368     0.208        3-1    0.19452 /_   78.3    0.9352
X_1000746 ... 1      0.11315 /_  -71.6   0.94226     0.208        1-2      0.196 /_  -41.6   0.94229
   -          2      0.11328 /_  168.5    0.9433     0.208        2-3     0.1964 /_ -161.6   0.94425
   -          3      0.11339 /_   48.4   0.94421     0.208        3-1    0.19619 /_   78.3   0.94322
S1X_1000746 . 1       0.1121 /_  -71.6    0.9335     0.208        1-2    0.19424 /_  -41.5   0.93385
   -          2      0.11231 /_  168.5   0.93526     0.208        2-3    0.19479 /_ -161.5   0.93651
   -          3      0.11246 /_   48.4   0.93647     0.208        3-1    0.19445 /_   78.3   0.93488
S2X_1000746 . 1       0.1121 /_  -71.6    0.9335     0.208        1-2    0.19424 /_  -41.5   0.93385
   -          2      0.11231 /_  168.5   0.93526     0.208        2-3    0.19479 /_ -161.5   0.93651
   -          3      0.11246 /_   48.4   0.93647     0.208        3-1    0.19445 /_   78.3   0.93488
S3X_1000746 . 1       0.1121 /_  -71.6    0.9335     0.208        1-2    0.19424 /_  -41.5   0.93385
   -          2      0.11231 /_  168.5   0.93526     0.208        2-3    0.19479 /_ -161.5   0.93651
   -          3      0.11246 /_   48.4   0.93647     0.208        3-1    0.19445 /_   78.3   0.93488
X_1000608 ... 1       0.2273 /_  -41.2   0.94708     0.416
S1X_1000608 . 1      0.22695 /_  -41.2   0.94562     0.416
S2X_1000608 . 1      0.22695 /_  -41.2   0.94562     0.416
S3X_1000608 . 1      0.22695 /_  -41.2   0.94562     0.416
S4X_1000608 . 1      0.22695 /_  -41.2   0.94562     0.416
S5X_1000608 . 1      0.22695 /_  -41.2   0.94562     0.416
S6X_1000608 . 1      0.22695 /_  -41.2   0.94562     0.416
S7X_1000608 . 1      0.22695 /_  -41.2   0.94562     0.416
S8X_1000608 . 1      0.22695 /_  -41.2   0.94562     0.416
X_1000609 ... 1      0.22711 /_  -41.2   0.94626     0.416
S1X_1000609 . 1      0.22694 /_  -41.2   0.94555     0.416
S2X_1000609 . 1      0.22694 /_  -41.2   0.94555     0.416
S3X_1000609 . 1      0.22694 /_  -41.2   0.94555     0.416
S4X_1000609 . 1      0.22694 /_  -41.2   0.94555     0.416
S5X_1000609 . 1      0.22694 /_  -41.2   0.94555     0.416
S6X_1000609 . 1      0.22694 /_  -41.2   0.94555     0.416
S7X_1000609 . 1      0.22694 /_  -41.2   0.94555     0.416
S8X_1000609 . 1      0.22694 /_  -41.2   0.94555     0.416
S9X_1000609 . 1      0.22694 /_  -41.2   0.94555     0.416
S10X_1000609  1      0.22694 /_  -41.2   0.94555     0.416
S11X_1000609  1      0.22694 /_  -41.2   0.94555     0.416
X_1000610 ... 1      0.22717 /_  -41.2   0.94652     0.416
S1X_1000610 . 1      0.22683 /_  -41.2   0.94511     0.416
S2X_1000610 . 1      0.22683 /_  -41.2   0.94511     0.416
S3X_1000610 . 1      0.22683 /_  -41.2   0.94511     0.416
S4X_1000610 . 1      0.22683 /_  -41.2   0.94511     0.416
S5X_1000610 . 1      0.22683 /_  -41.2   0.94511     0.416
S6X_1000610 . 1      0.22683 /_  -41.2   0.94511     0.416
S7X_1000610 . 1      0.22683 /_  -41.2   0.94511     0.416
S8X_1000610 . 1      0.22683 /_  -41.2   0.94511     0.416
S9X_1000610 . 1      0.22683 /_  -41.2   0.94511     0.416
S10X_1000610  1      0.22683 /_  -41.2   0.94511     0.416
S11X_1000610  1      0.22683 /_  -41.2   0.94511     0.416
X_1000611 ... 1      0.22709 /_  -41.2   0.94621     0.416
S1X_1000611 . 1      0.22672 /_  -41.2   0.94466     0.416
S2X_1000611 . 1      0.22672 /_  -41.2   0.94466     0.416
S3X_1000611 . 1      0.22672 /_  -41.2   0.94466     0.416
S4X_1000611 . 1      0.22672 /_  -41.2   0.94466     0.416
S5X_1000611 . 1      0.22672 /_  -41.2   0.94466     0.416
X_1000612 ... 1      0.22716 /_  -41.2   0.94648     0.416
S1X_1000612 . 1      0.22669 /_  -41.2   0.94453     0.416
S2X_1000612 . 1      0.22669 /_  -41.2   0.94453     0.416
S3X_1000612 . 1      0.22669 /_  -41.2   0.94453     0.416
S4X_1000612 . 1      0.22669 /_  -41.2   0.94453     0.416
S5X_1000612 . 1      0.22669 /_  -41.2   0.94453     0.416
S6X_1000612 . 1      0.22669 /_  -41.2   0.94453     0.416
S7X_1000612 . 1      0.22669 /_  -41.2   0.94453     0.416
S8X_1000612 . 1      0.22669 /_  -41.2   0.94453     0.416
X_1000598 ... 3      0.22647 /_   79.0   0.94359     0.416
S1X_1000598 . 3      0.22612 /_   79.0   0.94217     0.416
S2X_1000598 . 3      0.22612 /_   79.0   0.94217     0.416
S3X_1000598 . 3      0.22612 /_   79.0   0.94217     0.416
S4X_1000598 . 3      0.22612 /_   79.0   0.94217     0.416
S5X_1000598 . 3      0.22612 /_   79.0   0.94217     0.416
S6X_1000598 . 3      0.22612 /_   79.0   0.94217     0.416
S7X_1000598 . 3      0.22612 /_   79.0   0.94217     0.416
S8X_1000598 . 3      0.22612 /_   79.0   0.94217     0.416
S9X_1000598 . 3      0.22612 /_   79.0   0.94217     0.416
X_1000599 ... 3      0.22646 /_   79.0   0.94358     0.416
S1X_1000599 . 3      0.22618 /_   79.0   0.94242     0.416
S2X_1000599 . 3      0.22618 /_   79.0   0.94242     0.416
S3X_1000599 . 3      0.22618 /_   79.0   0.94242     0.416
S4X_1000599 . 3      0.22618 /_   79.0   0.94242     0.416
S5X_1000599 . 3      0.22618 /_   79.0   0.94242     0.416
S6X_1000599 . 3      0.22618 /_   79.0   0.94242     0.416
S7X_1000599 . 3      0.22618 /_   79.0   0.94242     0.416
S8X_1000599 . 3      0.22618 /_   79.0   0.94242     0.416
S9X_1000599 . 3      0.22618 /_   79.0   0.94242     0.416
S10X_1000599  3      0.22618 /_   79.0   0.94242     0.416
S11X_1000599  3      0.22618 /_   79.0   0.94242     0.416
X_1000600 ... 3      0.22627 /_   78.9   0.94276     0.416
S1X_1000600 . 3      0.22604 /_   78.9   0.94181     0.416
S2X_1000600 . 3      0.22604 /_   78.9   0.94181     0.416
S3X_1000600 . 3      0.22604 /_   78.9   0.94181     0.416
S4X_1000600 . 3      0.22604 /_   78.9   0.94181     0.416
S5X_1000600 . 3      0.22604 /_   78.9   0.94181     0.416
S6X_1000600 . 3      0.22604 /_   78.9   0.94181     0.416
S7X_1000600 . 3      0.22604 /_   78.9   0.94181     0.416
S8X_1000600 . 3      0.22604 /_   78.9   0.94181     0.416
S9X_1000600 . 3      0.22604 /_   78.9   0.94181     0.416
X_1000602 ... 3      0.22626 /_   78.9   0.94275     0.416
S1X_1000602 . 3      0.22601 /_   79.0   0.94168     0.416
S2X_1000602 . 3      0.22601 /_   79.0   0.94168     0.416
S3X_1000602 . 3      0.22601 /_   79.0   0.94168     0.416
S4X_1000602 . 3      0.22601 /_   79.0   0.94168     0.416
S5X_1000602 . 3      0.22601 /_   79.0   0.94168     0.416
S6X_1000602 . 3      0.22601 /_   79.0   0.94168     0.416
S7X_1000602 . 3      0.22601 /_   79.0   0.94168     0.416
S8X_1000602 . 3      0.22601 /_   79.0   0.94168     0.416
X_1000601 ... 3      0.22626 /_   78.9   0.94275     0.416
S1X_1000601 . 3      0.22601 /_   79.0   0.94168     0.416
S2X_1000601 . 3      0.22601 /_   79.0   0.94168     0.416
S3X_1000601 . 3      0.22601 /_   79.0   0.94168     0.416
S4X_1000601 . 3      0.22601 /_   79.0   0.94168     0.416
S5X_1000601 . 3      0.22601 /_   79.0   0.94168     0.416
S6X_1000601 . 3      0.22601 /_   79.0   0.94168     0.416
S7X_1000601 . 3      0.22601 /_   79.0   0.94168     0.416
S8X_1000601 . 3      0.22601 /_   79.0   0.94168     0.416
X_1000603 ... 2      0.22817 /_ -160.8   0.95067     0.416
S1X_1000603 . 2      0.22774 /_ -160.8   0.94891     0.416
S2X_1000603 . 2      0.22774 /_ -160.8   0.94891     0.416
S3X_1000603 . 2      0.22774 /_ -160.8   0.94891     0.416
S4X_1000603 . 2      0.22774 /_ -160.8   0.94891     0.416
S5X_1000603 . 2      0.22774 /_ -160.8   0.94891     0.416
S6X_1000603 . 2      0.22774 /_ -160.8   0.94891     0.416
S7X_1000603 . 2      0.22774 /_ -160.8   0.94891     0.416
X_1000604 ... 2      0.22815 /_ -160.8   0.95061     0.416
S1X_1000604 . 2      0.22795 /_ -160.8   0.94978     0.416
S2X_1000604 . 2      0.22795 /_ -160.8   0.94978     0.416
S3X_1000604 . 2      0.22795 /_ -160.8   0.94978     0.416
S4X_1000604 . 2      0.22795 /_ -160.8   0.94978     0.416
S5X_1000604 . 2      0.22795 /_ -160.8   0.94978     0.416
S6X_1000604 . 2      0.22795 /_ -160.8   0.94978     0.416
S7X_1000604 . 2      0.22795 /_ -160.8   0.94978     0.416
S8X_1000604 . 2      0.22795 /_ -160.8   0.94978     0.416
S9X_1000604 . 2      0.22795 /_ -160.8   0.94978     0.416
S10X_1000604  2      0.22795 /_ -160.8   0.94978     0.416
S11X_1000604  2      0.22795 /_ -160.8   0.94978     0.416
S12X_1000604  2      0.22795 /_ -160.8   0.94978     0.416
S13X_1000604  2      0.22795 /_ -160.8   0.94978     0.416
S14X_1000604  2      0.22795 /_ -160.8   0.94978     0.416
S15X_1000604  2      0.22795 /_ -160.8   0.94978     0.416
X_1000605 ... 2      0.22802 /_ -160.9   0.95006     0.416
S1X_1000605 . 2      0.22766 /_ -160.9   0.94857     0.416
S2X_1000605 . 2      0.22766 /_ -160.9   0.94857     0.416
S3X_1000605 . 2      0.22766 /_ -160.9   0.94857     0.416
S4X_1000605 . 2      0.22766 /_ -160.9   0.94857     0.416
S5X_1000605 . 2      0.22766 /_ -160.9   0.94857     0.416
S6X_1000605 . 2      0.22766 /_ -160.9   0.94857     0.416
S7X_1000605 . 2      0.22766 /_ -160.9   0.94857     0.416
S8X_1000605 . 2      0.22766 /_ -160.9   0.94857     0.416
S9X_1000605 . 2      0.22766 /_ -160.9   0.94857     0.416
S10X_1000605  2      0.22766 /_ -160.9   0.94857     0.416
S11X_1000605  2      0.22766 /_ -160.9   0.94857     0.416
X_1000606 ... 2      0.22812 /_ -160.8    0.9505     0.416
S1X_1000606 . 2      0.22788 /_ -160.8   0.94947     0.416
S2X_1000606 . 2      0.22788 /_ -160.8   0.94947     0.416
S3X_1000606 . 2      0.22788 /_ -160.8   0.94947     0.416
S4X_1000606 . 2      0.22788 /_ -160.8   0.94947     0.416
S5X_1000606 . 2      0.22788 /_ -160.8   0.94947     0.416
S6X_1000606 . 2      0.22788 /_ -160.8   0.94947     0.416
S7X_1000606 . 2      0.22788 /_ -160.8   0.94947     0.416
S8X_1000606 . 2      0.22788 /_ -160.8   0.94947     0.416
S9X_1000606 . 2      0.22788 /_ -160.8   0.94947     0.416
S10X_1000606  2      0.22788 /_ -160.8   0.94947     0.416
S11X_1000606  2      0.22788 /_ -160.8   0.94947     0.416
S12X_1000606  2      0.22788 /_ -160.8   0.94947     0.416
X_1000607 ... 2      0.22795 /_ -160.9   0.94976     0.416
S1X_1000607 . 2       0.2277 /_ -160.9   0.94873     0.416
S2X_1000607 . 2       0.2277 /_ -160.9   0.94873     0.416
S3X_1000607 . 2       0.2277 /_ -160.9   0.94873     0.416
S4X_1000607 . 2       0.2277 /_ -160.9   0.94873     0.416
S5X_1000607 . 2       0.2277 /_ -160.9   0.94873     0.416
S6X_1000607 . 2       0.2277 /_ -160.9   0.94873     0.416
S7X_1000607 . 2       0.2277 /_ -160.9   0.94873     0.416
S8X_1000607 . 2       0.2277 /_ -160.9   0.94873     0.416
X_1001933 ... 1      0.11295 /_  -71.8   0.94059     0.208        1-2    0.19565 /_  -41.8   0.94065
   -          2      0.11309 /_  168.3   0.94173     0.208        2-3    0.19608 /_ -161.8    0.9427
   -          3       0.1132 /_   48.2   0.94262     0.208        3-1    0.19585 /_   78.1   0.94159
S1X_1001933 . 1      0.10946 /_  -71.8   0.91152     0.208        1-2    0.18981 /_  -41.6   0.91253
   -          2      0.10989 /_  168.4   0.91506     0.208        2-3    0.19072 /_ -161.7   0.91692
   -          3      0.11009 /_   48.2   0.91674     0.208        3-1    0.19009 /_   78.1   0.91388
S2X_1001933 . 1      0.10946 /_  -71.8   0.91152     0.208        1-2    0.18981 /_  -41.6   0.91253
   -          2      0.10989 /_  168.4   0.91506     0.208        2-3    0.19072 /_ -161.7   0.91692
   -          3      0.11009 /_   48.2   0.91674     0.208        3-1    0.19009 /_   78.1   0.91388
S3X_1001933 . 1      0.10946 /_  -71.8   0.91152     0.208        1-2    0.18981 /_  -41.6   0.91253
   -          2      0.10989 /_  168.4   0.91506     0.208        2-3    0.19072 /_ -161.7   0.91692
   -          3      0.11009 /_   48.2   0.91674     0.208        3-1    0.19009 /_   78.1   0.91388
X_1000198 ... 1      0.22734 /_  -41.0   0.94722     0.416
S1X_1000198 . 1      0.22697 /_  -41.0   0.94567     0.416
X_1000548 ... 1      0.22745 /_  -41.2    0.9477     0.416
S1X_1000548 . 1      0.22559 /_  -41.2   0.93994     0.416
X_1000069 ... 1      0.11327 /_  -71.6    0.9432     0.208        1-2     0.1962 /_  -41.5   0.94327
   -          2      0.11341 /_  168.5   0.94435     0.208        2-3    0.19663 /_ -161.5   0.94533
   -          3      0.11351 /_   48.4   0.94526     0.208        3-1    0.19639 /_   78.3    0.9442
S1X_1000069 . 1      0.11274 /_  -71.6   0.93882     0.208        1-2    0.19532 /_  -41.5   0.93905
   -          2      0.11292 /_  168.5   0.94033     0.208        2-3    0.19582 /_ -161.5   0.94146
   -          3      0.11305 /_   48.4   0.94139     0.208        3-1    0.19553 /_   78.3   0.94003
S2X_1000069 . 1      0.11274 /_  -71.6   0.93882     0.208        1-2    0.19532 /_  -41.5   0.93905
   -          2      0.11292 /_  168.5   0.94033     0.208        2-3    0.19582 /_ -161.5   0.94146
   -          3      0.11305 /_   48.4   0.94139     0.208        3-1    0.19553 /_   78.3   0.94003
S3X_1000069 . 1      0.11274 /_  -71.6   0.93882     0.208        1-2    0.19532 /_  -41.5   0.93905
   -          2      0.11292 /_  168.5   0.94033     0.208        2-3    0.19582 /_ -161.5   0.94146
   -          3      0.11305 /_   48.4   0.94139     0.208        3-1    0.19553 /_   78.3   0.94003
S4X_1000069 . 1      0.11274 /_  -71.6   0.93882     0.208        1-2    0.19532 /_  -41.5   0.93905
   -          2      0.11292 /_  168.5   0.94033     0.208        2-3    0.19582 /_ -161.5   0.94146
   -          3      0.11305 /_   48.4   0.94139     0.208        3-1    0.19553 /_   78.3   0.94003
S5X_1000069 . 1      0.11274 /_  -71.6   0.93882     0.208        1-2    0.19532 /_  -41.5   0.93905
   -          2      0.11292 /_  168.5   0.94033     0.208        2-3    0.19582 /_ -161.5   0.94146
   -          3      0.11305 /_   48.4   0.94139     0.208        3-1    0.19553 /_   78.3   0.94003
S6X_1000069 . 1      0.11274 /_  -71.6   0.93882     0.208        1-2    0.19532 /_  -41.5   0.93905
   -          2      0.11292 /_  168.5   0.94033     0.208        2-3    0.19582 /_ -161.5   0.94146
   -          3      0.11305 /_   48.4   0.94139     0.208        3-1    0.19553 /_   78.3   0.94003
X_1000531 ... 1      0.22768 /_  -41.0   0.94866     0.416
S1X_1000531 . 1      0.22743 /_  -41.0    0.9476     0.416
S2X_1000531 . 1      0.22743 /_  -41.0    0.9476     0.416
S3X_1000531 . 1      0.22743 /_  -41.0    0.9476     0.416
S4X_1000531 . 1      0.22743 /_  -41.0    0.9476     0.416
S5X_1000531 . 1      0.22743 /_  -41.0    0.9476     0.416
S6X_1000531 . 1      0.22743 /_  -41.0    0.9476     0.416
S7X_1000531 . 1      0.22743 /_  -41.0    0.9476     0.416
S8X_1000531 . 1      0.22743 /_  -41.0    0.9476     0.416
S9X_1000531 . 1      0.22743 /_  -41.0    0.9476     0.416
S10X_1000531  1      0.22743 /_  -41.0    0.9476     0.416
S11X_1000531  1      0.22743 /_  -41.0    0.9476     0.416
X_1000533 ... 1      0.22768 /_  -41.0   0.94864     0.416
S1X_1000533 . 1      0.22742 /_  -41.0   0.94758     0.416
S2X_1000533 . 1      0.22742 /_  -41.0   0.94758     0.416
S3X_1000533 . 1      0.22742 /_  -41.0   0.94758     0.416
S4X_1000533 . 1      0.22742 /_  -41.0   0.94758     0.416
S5X_1000533 . 1      0.22742 /_  -41.0   0.94758     0.416
S6X_1000533 . 1      0.22742 /_  -41.0   0.94758     0.416
S7X_1000533 . 1      0.22742 /_  -41.0   0.94758     0.416
S8X_1000533 . 1      0.22742 /_  -41.0   0.94758     0.416
S9X_1000533 . 1      0.22742 /_  -41.0   0.94758     0.416
S10X_1000533  1      0.22742 /_  -41.0   0.94758     0.416
S11X_1000533  1      0.22742 /_  -41.0   0.94758     0.416
X_1000532 ... 1      0.22758 /_  -41.1   0.94821     0.416
S1X_1000532 . 1      0.22724 /_  -41.1    0.9468     0.416
S2X_1000532 . 1      0.22724 /_  -41.1    0.9468     0.416
S3X_1000532 . 1      0.22724 /_  -41.1    0.9468     0.416
S4X_1000532 . 1      0.22724 /_  -41.1    0.9468     0.416
S5X_1000532 . 1      0.22724 /_  -41.1    0.9468     0.416
S6X_1000532 . 1      0.22724 /_  -41.1    0.9468     0.416
S7X_1000532 . 1      0.22724 /_  -41.1    0.9468     0.416
S8X_1000532 . 1      0.22724 /_  -41.1    0.9468     0.416
S9X_1000532 . 1      0.22724 /_  -41.1    0.9468     0.416
S10X_1000532  1      0.22724 /_  -41.1    0.9468     0.416
S11X_1000532  1      0.22724 /_  -41.1    0.9468     0.416
X_1000582 ... 1      0.22751 /_  -41.1   0.94794     0.416
S1X_1000582 . 1      0.22724 /_  -41.1   0.94683     0.416
S2X_1000582 . 1      0.22724 /_  -41.1   0.94683     0.416
S3X_1000582 . 1      0.22724 /_  -41.1   0.94683     0.416
S4X_1000582 . 1      0.22724 /_  -41.1   0.94683     0.416
S5X_1000582 . 1      0.22724 /_  -41.1   0.94683     0.416
S6X_1000582 . 1      0.22724 /_  -41.1   0.94683     0.416
S7X_1000582 . 1      0.22724 /_  -41.1   0.94683     0.416
X_1000581 ... 1       0.2275 /_  -41.1    0.9479     0.416
S1X_1000581 . 1      0.22727 /_  -41.1   0.94693     0.416
S2X_1000581 . 1      0.22727 /_  -41.1   0.94693     0.416
S3X_1000581 . 1      0.22727 /_  -41.1   0.94693     0.416
S4X_1000581 . 1      0.22727 /_  -41.1   0.94693     0.416
S5X_1000581 . 1      0.22727 /_  -41.1   0.94693     0.416
S6X_1000581 . 1      0.22727 /_  -41.1   0.94693     0.416
...